
[General]
network = inet.networks.tsn.TsnZonedNetwork
sim-time-limit = 20ms
record-eventlog = true
description = "Time-Aware Shaper example, no external libraries"


*.switch_2.hasEgressTrafficShaping = true

*.switch_3.hasEgressTrafficShaping = true

*.device_4.hasEgressTrafficShaping = true
